data/data/Three-wire-phase-to-neutral/network_22/Feeder_1/LineCode.txt
! Subset of available target linecodes, which are closest to the original ones in terms of positive sequence impedance
! -------------------------------------------------------------------------------------------------------------------------------------------------------------------------------------------------
! original name: BS 5467 1997 table 10 35 (50 Hz)
New LineCode.LC3 nphases=3 Units=km
~ Rmatrix=(1.049097 0.525131 0.523967 | 0.525131 1.050262 0.525131 | 0.5239669999999998 0.5251309999999999 1.049097)
~ Xmatrix=(0.13924199999999987 0.09383799999999987 0.04540899999999992 | 0.09383799999999987 0.18767999999999985 0.09384399999999993 | 0.04540899999999992 0.09384399999999993 0.13925699999999996)
~ Cmatrix=(0.0 0.0 0.0 | 0.0 0.0 0.0 | 0.0 0.0 0.0)

! original name: BS 5467 1997 table 10 70 (50 Hz)
New LineCode.LC4 nphases=3 Units=km
~ Rmatrix=(0.5397660000000001 0.27105900000000005 0.26870800000000006 | 0.27105900000000005 0.5421180000368696 0.2710590000368696 | 0.26870800000000006 0.2710590000368696 0.5397670000368696)
~ Xmatrix=(0.134922 0.09144699999999994 0.043484999999999996 | 0.09144699999999994 0.18289999996466888 0.09144699996466887 | 0.043484999999999996 0.09144699996466887 0.13493799996466893)
~ Cmatrix=(0.0 0.0 0.0 | 0.0 0.0 0.0 | 0.0 0.0 0.0)

! original name: BS 6480 1988 table 17 Cu 16 (50 Hz)
New LineCode.LC6 nphases=3 Units=km
~ Rmatrix=(2.305147 1.1534 1.151747 | 1.1534 2.3068009999999997 1.1534 | 1.151747 1.1534 2.305148)
~ Xmatrix=(0.16893999999999987 0.11444699999999997 0.05449899999999985 | 0.11444699999999997 0.22889099999999996 0.114448 | 0.05449899999999985 0.114448 0.1689449999999999)
~ Cmatrix=(0.0 0.0 0.0 | 0.0 0.0 0.0 | 0.0 0.0 0.0)

! original name: Waveform 4-core 95 IEC 60287 (50 Hz)
New LineCode.LC9 nphases=3 Units=km
~ Rmatrix=(0.6456139999999999 0.32280699999999996 0.32280699999999996 | 0.32280699999999996 0.6456139999999999 0.32280699999999996 | 0.32280699999999996 0.32280699999999996 0.6456139999999999)
~ Xmatrix=(0.1230420000000001 0.08350800000000003 0.03953400000000007 | 0.08350800000000003 0.16701600000000005 0.08350800000000003 | 0.03953400000000007 0.08350800000000003 0.1230420000000001)
~ Cmatrix=(0.0 0.0 0.0 | 0.0 0.0 0.0 | 0.0 0.0 0.0)
! -------------------------------------------------------------------------------------------------------------------------------------------------------------------------------------------------